instances/data_GOC/Phase_0_Modified_RTS96/scenario_65/powersystem.raw
 0,  100.000000
rts96_spring_wday.raw / File written by to_psse.gms
5 / 19 / 2015
101, ' 101 ',138,2,1,1,1,1.00,0.00,1.1,0.9,1.1,0.9
102, ' 102 ',138,2,1,1,1,1.00,0.00,1.1,0.9,1.1,0.9
103, ' 103 ',138,1,1,1,1,1.00,0.00,1.1,0.9,1.1,0.9
104, ' 104 ',138,1,1,1,1,1.00,0.00,1.1,0.9,1.1,0.9
105, ' 105 ',138,1,1,1,1,1.00,0.00,1.1,0.9,1.1,0.9
106, ' 106 ',138,1,1,1,1,1.00,0.00,1.1,0.9,1.1,0.9
107, ' 107 ',138,2,1,1,1,1.00,0.00,1.1,0.9,1.1,0.9
108, ' 108 ',138,1,1,1,1,1.00,0.00,1.1,0.9,1.1,0.9
109, ' 109 ',138,1,1,1,1,1.00,0.00,1.1,0.9,1.1,0.9
110, ' 110 ',138,1,1,1,1,1.00,0.00,1.1,0.9,1.1,0.9
111, ' 111 ',230,1,1,1,1,1.00,0.00,1.1,0.9,1.1,0.9
112, ' 112 ',230,1,1,1,1,1.00,0.00,1.1,0.9,1.1,0.9
113, ' 113 ',230,3,1,1,1,1.00,0.00,1.1,0.9,1.1,0.9
114, ' 114 ',230,2,1,1,1,1.00,0.00,1.1,0.9,1.1,0.9
115, ' 115 ',230,2,1,1,1,1.00,0.00,1.1,0.9,1.1,0.9
116, ' 116 ',230,2,1,1,1,1.00,0.00,1.1,0.9,1.1,0.9
117, ' 117 ',230,1,1,1,1,1.00,0.00,1.1,0.9,1.1,0.9
118, ' 118 ',230,2,1,1,1,1.00,0.00,1.1,0.9,1.1,0.9
119, ' 119 ',230,1,1,1,1,1.00,0.00,1.1,0.9,1.1,0.9
120, ' 120 ',230,1,1,1,1,1.00,0.00,1.1,0.9,1.1,0.9
121, ' 121 ',230,2,1,1,1,1.00,0.00,1.1,0.9,1.1,0.9
122, ' 122 ',230,2,1,1,1,1.00,0.00,1.1,0.9,1.1,0.9
123, ' 123 ',230,2,1,1,1,1.00,0.00,1.1,0.9,1.1,0.9
124, ' 124 ',230,1,1,1,1,1.00,0.00,1.1,0.9,1.1,0.9
201, ' 201 ',138,2,1,1,1,1.00,0.00,1.1,0.9,1.1,0.9
202, ' 202 ',138,2,1,1,1,1.00,0.00,1.1,0.9,1.1,0.9
203, ' 203 ',138,1,1,1,1,1.00,0.00,1.1,0.9,1.1,0.9
204, ' 204 ',138,1,1,1,1,1.00,0.00,1.1,0.9,1.1,0.9
205, ' 205 ',138,1,1,1,1,1.00,0.00,1.1,0.9,1.1,0.9
206, ' 206 ',138,1,1,1,1,1.00,0.00,1.1,0.9,1.1,0.9
207, ' 207 ',138,2,1,1,1,1.00,0.00,1.1,0.9,1.1,0.9
208, ' 208 ',138,1,1,1,1,1.00,0.00,1.1,0.9,1.1,0.9
209, ' 209 ',138,1,1,1,1,1.00,0.00,1.1,0.9,1.1,0.9
210, ' 210 ',138,1,1,1,1,1.00,0.00,1.1,0.9,1.1,0.9
211, ' 211 ',230,1,1,1,1,1.00,0.00,1.1,0.9,1.1,0.9
212, ' 212 ',230,1,1,1,1,1.00,0.00,1.1,0.9,1.1,0.9
213, ' 213 ',230,2,1,1,1,1.00,0.00,1.1,0.9,1.1,0.9
214, ' 214 ',230,2,1,1,1,1.00,0.00,1.1,0.9,1.1,0.9
215, ' 215 ',230,2,1,1,1,1.00,0.00,1.1,0.9,1.1,0.9
216, ' 216 ',230,2,1,1,1,1.00,0.00,1.1,0.9,1.1,0.9
217, ' 217 ',230,1,1,1,1,1.00,0.00,1.1,0.9,1.1,0.9
218, ' 218 ',230,2,1,1,1,1.00,0.00,1.1,0.9,1.1,0.9
219, ' 219 ',230,1,1,1,1,1.00,0.00,1.1,0.9,1.1,0.9
220, ' 220 ',230,1,1,1,1,1.00,0.00,1.1,0.9,1.1,0.9
221, ' 221 ',230,2,1,1,1,1.00,0.00,1.1,0.9,1.1,0.9
222, ' 222 ',230,2,1,1,1,1.00,0.00,1.1,0.9,1.1,0.9
223, ' 223 ',230,2,1,1,1,1.00,0.00,1.1,0.9,1.1,0.9
224, ' 224 ',230,1,1,1,1,1.00,0.00,1.1,0.9,1.1,0.9
301, ' 301 ',138,2,1,1,1,1.00,0.00,1.1,0.9,1.1,0.9
302, ' 302 ',138,2,1,1,1,1.00,0.00,1.1,0.9,1.1,0.9
303, ' 303 ',138,1,1,1,1,1.00,0.00,1.1,0.9,1.1,0.9
304, ' 304 ',138,1,1,1,1,1.00,0.00,1.1,0.9,1.1,0.9
305, ' 305 ',138,1,1,1,1,1.00,0.00,1.1,0.9,1.1,0.9
306, ' 306 ',138,1,1,1,1,1.00,0.00,1.1,0.9,1.1,0.9
307, ' 307 ',138,2,1,1,1,1.00,0.00,1.1,0.9,1.1,0.9
308, ' 308 ',138,1,1,1,1,1.00,0.00,1.1,0.9,1.1,0.9
309, ' 309 ',138,1,1,1,1,1.00,0.00,1.1,0.9,1.1,0.9
310, ' 310 ',138,1,1,1,1,1.00,0.00,1.1,0.9,1.1,0.9
311, ' 311 ',230,1,1,1,1,1.00,0.00,1.1,0.9,1.1,0.9
312, ' 312 ',230,1,1,1,1,1.00,0.00,1.1,0.9,1.1,0.9
313, ' 313 ',230,2,1,1,1,1.00,0.00,1.1,0.9,1.1,0.9
314, ' 314 ',230,2,1,1,1,1.00,0.00,1.1,0.9,1.1,0.9
315, ' 315 ',230,2,1,1,1,1.00,0.00,1.1,0.9,1.1,0.9
316, ' 316 ',230,2,1,1,1,1.00,0.00,1.1,0.9,1.1,0.9
317, ' 317 ',230,1,1,1,1,1.00,0.00,1.1,0.9,1.1,0.9
318, ' 318 ',230,2,1,1,1,1.00,0.00,1.1,0.9,1.1,0.9
319, ' 319 ',230,1,1,1,1,1.00,0.00,1.1,0.9,1.1,0.9
320, ' 320 ',230,1,1,1,1,1.00,0.00,1.1,0.9,1.1,0.9
321, ' 321 ',230,2,1,1,1,1.00,0.00,1.1,0.9,1.1,0.9
322, ' 322 ',230,2,1,1,1,1.00,0.00,1.1,0.9,1.1,0.9
323, ' 323 ',230,2,1,1,1,1.00,0.00,1.1,0.9,1.1,0.9
324, ' 324 ',230,1,1,1,1,1.00,0.00,1.1,0.9,1.1,0.9
325, ' 325 ',230,1,1,1,1,1.00,0.00,1.1,0.9,1.1,0.9
0 / END OF BUS DATA, BEGIN LOAD DATA
101, '1 ',1,11,11,55.49025243394263,12.187576519344002,0.0,0.0,0.0,0.0,1,1,0
102, '1 ',1,11,12,67.19544738954795,10.61017184122838,0.0,0.0,0.0,0.0,1,1,0
103, '1 ',1,11,11,127.65155713997035,21.860216099056785,0.0,0.0,0.0,0.0,1,1,0
104, '1 ',1,11,11,43.924859111311555,9.25171371259773,0.0,0.0,0.0,0.0,1,1,0
105, '1 ',1,11,11,44.54682940189457,10.057105350670405,0.0,0.0,0.0,0.0,1,1,0
106, '1 ',1,11,12,92.7384318638362,24.84393979721982,0.0,0.0,0.0,0.0,1,1,0
107, '1 ',1,11,12,81.08695395895047,19.784786611783783,0.0,0.0,0.0,0.0,1,1,0
108, '1 ',1,11,12,103.43913716717978,29.471147284015082,0.0,0.0,0.0,0.0,1,1,0
109, '1 ',1,11,13,107.46772227393114,22.579013027284855,0.0,0.0,0.0,0.0,1,1,0
110, '1 ',1,11,13,141.7195706211899,23.888637506464494,0.0,0.0,0.0,0.0,1,1,0
111, '1 ',1,11,13,0.0,0.0,0.0,0.0,0.0,0.0,1,1,0
112, '1 ',1,11,13,0.0,0.0,0.0,0.0,0.0,0.0,1,1,0
113, '1 ',1,12,14,196.5973810096609,39.91470720235174,0.0,0.0,0.0,0.0,1,1,0
114, '1 ',1,12,16,165.49948162094114,27.342118958136535,0.0,0.0,0.0,0.0,1,1,0
115, '1 ',1,12,16,206.42429370356186,32.1991611903727,0.0,0.0,0.0,0.0,1,1,0
116, '1 ',1,12,16,87.49182881349698,15.763127340811305,0.0,0.0,0.0,0.0,1,1,0
117, '1 ',1,12,17,0.0,0.0,0.0,0.0,0.0,0.0,1,1,0
118, '1 ',1,12,17,200.36679906759434,49.21088880974036,0.0,0.0,0.0,0.0,1,1,0
119, '1 ',1,12,15,88.62748565513631,19.318057928318574,0.0,0.0,0.0,0.0,1,1,0
120, '1 ',1,12,15,68.83965122737884,22.953351852980443,0.0,0.0,0.0,0.0,1,1,0
121, '1 ',1,12,17,0.0,0.0,0.0,0.0,0.0,0.0,1,1,0
122, '1 ',1,12,17,0.0,0.0,0.0,0.0,0.0,0.0,1,1,0
123, '1 ',1,12,15,0.0,0.0,0.0,0.0,0.0,0.0,1,1,0
124, '1 ',1,12,16,0.0,0.0,0.0,0.0,0.0,0.0,1,1,0
201, '1 ',1,21,21,53.10004292532875,14.582415023552533,0.0,0.0,0.0,0.0,1,1,0
202, '1 ',1,21,22,68.05134248924386,14.21144580068998,0.0,0.0,0.0,0.0,1,1,0
203, '1 ',1,21,21,149.14686401269958,28.10566201562625,0.0,0.0,0.0,0.0,1,1,0
204, '1 ',1,21,21,45.54182438351288,11.740311334958065,0.0,0.0,0.0,0.0,1,1,0
205, '1 ',1,21,21,50.60037635116415,7.097277331875543,0.0,0.0,0.0,0.0,1,1,0
206, '1 ',1,21,22,102.34467221409716,23.72946597304288,0.0,0.0,0.0,0.0,1,1,0
207, '1 ',1,21,22,93.45440847531427,15.285478390945354,0.0,0.0,0.0,0.0,1,1,0
208, '1 ',1,21,22,130.56586637344338,26.380032053427772,0.0,0.0,0.0,0.0,1,1,0
209, '1 ',1,21,23,94.27238884660997,27.004305608410387,0.0,0.0,0.0,0.0,1,1,0
210, '1 ',1,21,23,128.91720338710792,26.333686190430072,0.0,0.0,0.0,0.0,1,1,0
211, '1 ',1,21,23,0.0,0.0,0.0,0.0,0.0,0.0,1,1,0
212, '1 ',1,21,23,0.0,0.0,0.0,0.0,0.0,0.0,1,1,0
213, '1 ',1,22,24,221.12501079904965,46.94725360801946,0.0,0.0,0.0,0.0,1,1,0
214, '1 ',1,22,26,111.97334968392653,28.201011641717983,0.0,0.0,0.0,0.0,1,1,0
215, '1 ',1,22,26,189.7725844168254,46.97178600088655,0.0,0.0,0.0,0.0,1,1,0
216, '1 ',1,22,26,52.296125817834394,15.112958424970508,0.0,0.0,0.0,0.0,1,1,0
217, '1 ',1,22,27,0.0,0.0,0.0,0.0,0.0,0.0,1,1,0
218, '1 ',1,22,27,264.54231513337334,49.53957383283991,0.0,0.0,0.0,0.0,1,1,0
219, '1 ',1,22,25,149.9574636911776,33.08599855945702,0.0,0.0,0.0,0.0,1,1,0
220, '1 ',1,22,25,80.32410512387752,14.784647962203527,0.0,0.0,0.0,0.0,1,1,0
221, '1 ',1,22,27,0.0,0.0,0.0,0.0,0.0,0.0,1,1,0
222, '1 ',1,22,27,0.0,0.0,0.0,0.0,0.0,0.0,1,1,0
223, '1 ',1,22,25,0.0,0.0,0.0,0.0,0.0,0.0,1,1,0
224, '1 ',1,22,26,0.0,0.0,0.0,0.0,0.0,0.0,1,1,0
301, '1 ',1,31,31,63.722748059003045,11.412864082242363,0.0,0.0,0.0,0.0,1,1,0
302, '1 ',1,31,32,73.29521986695906,17.497601813689805,0.0,0.0,0.0,0.0,1,1,0
303, '1 ',1,31,31,148.96838717682937,21.511458061940267,0.0,0.0,0.0,0.0,1,1,0
304, '1 ',1,31,31,58.62370200444292,11.510726376274599,0.0,0.0,0.0,0.0,1,1,0
305, '1 ',1,31,31,59.02941109397086,7.980279447083082,0.0,0.0,0.0,0.0,1,1,0
306, '1 ',1,31,32,93.2136520457726,20.80718389450908,0.0,0.0,0.0,0.0,1,1,0
307, '1 ',1,31,32,68.17273284920957,13.676128926743985,0.0,0.0,0.0,0.0,1,1,0
308, '1 ',1,31,32,135.22162380018923,28.755917680657465,0.0,0.0,0.0,0.0,1,1,0
309, '1 ',1,31,33,117.82655104099308,18.61632087905444,0.0,0.0,0.0,0.0,1,1,0
310, '1 ',1,31,33,117.68099812166439,26.224922270564363,0.0,0.0,0.0,0.0,1,1,0
311, '1 ',1,31,33,0.0,0.0,0.0,0.0,0.0,0.0,1,1,0
312, '1 ',1,31,33,0.0,0.0,0.0,0.0,0.0,0.0,1,1,0
313, '1 ',1,32,34,173.9987374224267,33.671150369019244,0.0,0.0,0.0,0.0,1,1,0
314, '1 ',1,32,36,117.89713412727436,26.40585503503997,0.0,0.0,0.0,0.0,1,1,0
315, '1 ',1,32,36,247.18922070296753,46.1942848324567,0.0,0.0,0.0,0.0,1,1,0
316, '1 ',1,32,36,86.81133593328762,12.259686317129061,0.0,0.0,0.0,0.0,1,1,0
317, '1 ',1,32,37,0.0,0.0,0.0,0.0,0.0,0.0,1,1,0
318, '1 ',1,32,37,228.923298772284,47.2404955755651,0.0,0.0,0.0,0.0,1,1,0
319, '1 ',1,32,35,156.7397599601231,18.391937795207603,0.0,0.0,0.0,0.0,1,1,0
320, '1 ',1,32,35,114.91711033145785,14.669457011814135,0.0,0.0,0.0,0.0,1,1,0
321, '1 ',1,32,37,0.0,0.0,0.0,0.0,0.0,0.0,1,1,0
322, '1 ',1,32,37,0.0,0.0,0.0,0.0,0.0,0.0,1,1,0
323, '1 ',1,32,35,0.0,0.0,0.0,0.0,0.0,0.0,1,1,0
324, '1 ',1,32,36,0.0,0.0,0.0,0.0,0.0,0.0,1,1,0
325, '1 ',1,32,35,0.0,0.0,0.0,0.0,0.0,0.0,1,1,0
0 / END OF LOAD DATA, BEGIN FIXED SHUNT DATA
0 / END OF FIXED SHUNT DATA, BEGIN GENERATOR DATA
101,1,10,0,7.020233938004821,-2.766734020784498,1.035,0,24,0,1,0,0,1,1,100,15.970188848674296,11.83069886353798,1,1,0,1
101,2,10,0,7.467512434348463,0.19093682896345765,1.035,0,24,0,1,0,0,1,1,100,20.67614629957825,16.128537661405282,1,1,0,1
101,3,76,14.1,30.831352934706956,-38.46936278324574,1.035,0,89,0,1,0,0,1,1,100,93.67850796096026,17.400579789504405,1,1,0,1
101,4,76,14.1,28.225054265465587,-37.69498252728954,1.035,0,89,0,1,0,0,1,1,100,85.99508400671185,12.310445377603187,1,1,0,1
102,5,10,0,10.0095518771559,0.648246112279594,1.035,0,24,0,1,0,0,1,1,100,17.497903672978282,13.119661784628407,1,1,0,1
102,6,10,0,12.642337319906801,3.319707772694528,1.035,0,24,0,1,0,0,1,1,100,22.150051560252905,16.922317769583316,1,1,0,1
102,7,76,7,31.913599164225165,-36.58235284872353,1.035,0,89,0,1,0,0,1,1,100,88.19149300903082,10.933951300382617,1,1,0,1
102,8,76,7,38.99665736826137,-28.531548138475046,1.035,0,89,0,1,0,0,1,1,100,61.830733753181995,38.28612966523331,1,1,0,1
107,9,80,17.2,56.006408924236894,8.353931721299887,1.025,0,118,0,1,0,0,1,1,100,76.9058252684772,1.4215903799049556,1,1,0,1
107,10,80,17.2,73.67682157829405,-0.6943119401112057,1.025,0,118,0,1,0,0,1,1,100,71.8860176205635,11.603304237360135,1,1,0,1
107,11,80,17.2,55.283977115526795,7.39683140069247,1.025,0,118,0,1,0,0,1,1,100,70.44156305957586,21.44562769608754,1,1,0,1
113,12,95.1,40.7,79.74887763336301,21.250939596444375,1.02,0,232,0,1,0,0,1,1,100,188.35846669166347,27.857783935167788,1,1,0,1
113,13,95.1,40.7,77.62500495836139,21.57593386620284,1.02,0,232,0,1,0,0,1,1,100,194.57338415118863,81.9123345792689,1,1,0,1
113,14,95.1,40.7,65.83928694948554,-3.3864561393857002,1.02,0,232,0,1,0,0,1,1,100,177.1326242689509,60.33363896999508,1,1,0,1
114,15,0,13.7,185.72771599516273,-131.30807970650494,0.98,0,100,0,1,0,0,1,1,100,0.0,0.0,1,1,0,1
115,16,12,0,6.21754698017612,-0.04650035882368808,1.014,0,14,0,1,0,0,1,1,100,13.069990754686295,3.2156790622696274,1,1,0,1
115,17,12,0,6.229970805533231,1.3674485189840206,1.014,0,14,0,1,0,0,1,1,100,15.293663436546922,3.544581047818065,1,1,0,1
115,18,12,0,4.6167171162553124,-2.9911347700282933,1.014,0,14,0,1,0,0,1,1,100,13.633403356187046,4.552452912591399,1,1,0,1
115,19,12,0,5.005028877966105,-0.6269398251548415,1.014,0,14,0,1,0,0,1,1,100,12.250341366603969,0.19194942109286472,1,1,0,1
115,20,12,0,5.551471861358731,-1.9449038878083247,1.014,0,14,0,1,0,0,1,1,100,12.648261888138949,2.316601982228457,1,1,0,1
115,21,155,0.05,65.25701005011797,-70.61623374186456,1.014,0,182,0,1,0,0,1,1,100,127.25482216128148,51.07840776976664,1,1,0,1
116,22,155,25.22,71.81129860132933,-20.528393943794057,1.017,0,182,0,1,0,0,1,1,100,183.53425409388728,96.87012605194468,1,1,0,1
118,23,400,137.4,190.14770051464438,-17.530452699866146,1.05,0,471,0,1,0,0,1,1,100,485.0184531696141,132.05749764107168,1,1,0,1
121,24,400,108.2,179.00603119283915,-74.00409135501835,1.05,0,471,0,1,0,0,1,1,100,511.5219208039344,294.6265767421574,1,1,0,1
122,25,50,-4.96,19.898182973265648,-6.1434350199997425,1.05,0,53,0,1,0,0,1,1,100,64.33352397754788,23.042016027029604,1,1,0,1
122,26,50,-4.96,16.552005698531865,-7.574185695685447,1.05,0,53,0,1,0,0,1,1,100,36.73461435362697,25.767919038610586,1,1,0,1
122,27,50,-4.96,17.45673110038042,-16.33253780854866,1.05,0,53,0,1,0,0,1,1,100,36.69120310107245,30.46744197579465,1,1,0,1
122,28,50,-4.96,17.749087497591972,-8.382099669147284,1.05,0,53,0,1,0,0,1,1,100,52.13434701552615,2.631034792866565,1,1,0,1
122,29,50,-4.96,15.93937402293086,-16.61295819124207,1.05,0,53,0,1,0,0,1,1,100,45.42404631152749,0.9918677271343768,1,1,0,1
122,30,50,-4.96,18.207314865291117,-14.274794360343371,1.05,0,53,0,1,0,0,1,1,100,49.72072317264974,24.761774006908396,1,1,0,1
123,31,155,31.79,62.37806994467974,-57.21640625363216,1.05,0,182,0,1,0,0,1,1,100,120.33481096173637,26.457893800409508,1,1,0,1
123,32,155,31.79,92.58350272476673,-57.541892253328115,1.05,0,182,0,1,0,0,1,1,100,116.77064346452244,39.908119022822945,1,1,0,1
123,33,350,71.78,194.27996637532488,-20.012181173078744,1.05,0,412,0,1,0,0,1,1,100,310.24050335399806,139.47951625380665,1,1,0,1
201,34,10,0,7.396751508116721,-4.57722173491493,1.035,0,24,0,1,0,0,1,1,100,24.692197587341074,20.882523726746445,1,1,0,1
201,35,10,0,7.54050417477265,-0.11372232623398215,1.035,0,24,0,1,0,0,1,1,100,16.74558679200709,13.385307689271869,1,1,0,1
201,36,76,14.1,21.560657594818622,-20.889478460885584,1.035,0,89,0,1,0,0,1,1,100,75.76415712758899,16.872769179791213,1,1,0,1
201,37,76,14.1,31.805704733356833,-25.510717232944444,1.035,0,89,0,1,0,0,1,1,100,55.08152343295514,15.574568543248567,1,1,0,1
202,38,10,0,9.758015166502446,1.8646752024069428,1.035,0,24,0,1,0,0,1,1,100,23.271268776617944,19.150941548384726,1,1,0,1
202,39,10,0,9.660448965616524,-1.5588996419683099,1.035,0,24,0,1,0,0,1,1,100,20.46747351717204,16.46301590990275,1,1,0,1
202,40,76,7,27.22469346737489,-12.140225631184876,1.035,0,89,0,1,0,0,1,1,100,73.08773326203227,9.42363319836725,1,1,0,1
202,41,76,7,24.427304412703958,-41.76955076586455,1.035,0,89,0,1,0,0,1,1,100,84.70970321353525,18.21908330794423,1,1,0,1
207,42,80,17.2,54.78541713114828,-7.141645004041493,1.025,0,118,0,1,0,0,1,1,100,81.20680742431432,76.70456064775671,1,1,0,1
207,43,80,17.2,73.02440620400012,-4.679241316393018,1.025,0,118,0,1,0,0,1,1,100,116.04858642444013,48.65637621493077,1,1,0,1
207,44,80,17.2,62.60126963630319,15.869089996442213,1.025,0,118,0,1,0,0,1,1,100,125.36117003764957,59.586276554036885,1,1,0,1
213,45,95.1,40.7,82.62615532800555,-4.051773022860289,1.02,0,232,0,1,0,0,1,1,100,225.2595300464425,132.90755384356714,1,1,0,1
213,46,95.1,40.7,88.74384892731905,10.763352680951357,1.02,0,232,0,1,0,0,1,1,100,164.9526139010675,11.475397482248923,1,1,0,1
213,47,95.1,40.7,79.65450632199645,-17.55394542217256,1.02,0,232,0,1,0,0,1,1,100,138.98210851680486,3.4683632863079765,1,1,0,1
214,48,0,13.68,238.24900574982166,61.0406712978147,0.98,0,100,0,1,0,0,1,1,100,0.0,0.0,1,1,0,1
215,49,12,0,7.7159368864260625,0.0011187627911573017,1.014,0,14,0,1,0,0,1,1,100,14.386237487755714,7.165591589324175,1,1,0,1
215,50,12,0,4.375651477184146,-2.2317520980723202,1.014,0,14,0,1,0,0,1,1,100,13.777662194520234,2.0875549381971368,1,1,0,1
215,51,12,0,6.706710307952016,-0.9116721999831503,1.014,0,14,0,1,0,0,1,1,100,14.88739038705826,5.685756427198649,1,1,0,1
215,52,12,0,5.396893095597624,-0.03872308339923691,1.014,0,14,0,1,0,0,1,1,100,9.433442123048007,0.9581886282080778,1,1,0,1
215,53,12,0,5.790722382534295,0.07466001044958759,1.014,0,14,0,1,0,0,1,1,100,11.436522318050265,3.454717525318266,1,1,0,1
215,54,155,0.048,100.70460609719157,-31.700526779983193,1.014,0,182,0,1,0,0,1,1,100,189.90837071114223,87.31808886138028,1,1,0,1
216,55,155,25.22,88.51783601567149,-79.93234128458425,1.017,0,182,0,1,0,0,1,1,100,186.7173243286088,67.78685472812504,1,1,0,1
218,56,400,137.4,187.79903212562203,-17.56104901432991,1.05,0,471,0,1,0,0,1,1,100,333.80392506718636,21.329221013002098,1,1,0,1
221,57,400,108.2,245.545570589602,-12.38979657413438,1.05,0,471,0,1,0,0,1,1,100,481.61609008908266,129.33627047576005,1,1,0,1
222,58,50,-4.96,16.680949698388577,-7.546184078697117,1.05,0,53,0,1,0,0,1,1,100,45.2280889893882,14.734470448878382,1,1,0,1
222,59,50,-4.96,12.63754771798849,-14.772275177482516,1.05,0,53,0,1,0,0,1,1,100,48.61926181009039,10.871925805695355,1,1,0,1
222,60,50,-4.96,17.021901598572732,-8.132379437051714,1.05,0,53,0,1,0,0,1,1,100,48.23687627213076,10.545489450450987,1,1,0,1
222,61,50,-4.96,12.497250955551863,-15.215206831134857,1.05,0,53,0,1,0,0,1,1,100,45.03865112550557,11.712248286544943,1,1,0,1
222,62,50,-4.96,14.583806684613227,-6.1425015335902575,1.05,0,53,0,1,0,0,1,1,100,38.313163404818624,23.988852200047724,1,1,0,1
222,63,50,-4.96,13.584487057477237,-18.699078871589155,1.05,0,53,0,1,0,0,1,1,100,47.718084109947085,7.9740424593910575,1,1,0,1
223,64,155,31.79,93.15157026425004,-49.624406351707876,1.05,0,182,0,1,0,0,1,1,100,110.12284509954043,18.79707632135832,1,1,0,1
223,65,155,31.79,102.98956150561573,2.5209346734918796,1.05,0,182,0,1,0,0,1,1,100,193.24461692315526,71.54319225518266,1,1,0,1
223,66,350,71.78,193.14203490503132,-24.678392022615327,1.05,0,412,0,1,0,0,1,1,100,357.4660309264437,125.41671073902407,1,1,0,1
301,67,10,0,7.125514881685375,-5.632703020703048,1.035,0,24,0,1,0,0,1,1,100,15.33659520279616,10.85662728386931,1,1,0,1
301,68,10,0,9.575364251155406,-3.3025318435393274,1.035,0,24,0,1,0,0,1,1,100,20.092595200054348,15.53083513508551,1,1,0,1
301,69,76,14.1,22.9931260747835,-26.783541921060536,1.035,0,89,0,1,0,0,1,1,100,88.32048086915165,21.94956630233675,1,1,0,1
301,70,76,14.1,35.33495903480798,-31.284729946171865,1.035,0,89,0,1,0,0,1,1,100,78.8066353969276,2.9921371479332493,1,1,0,1
302,71,10,0,10.019461939577013,0.09374214196577668,1.035,0,24,0,1,0,0,1,1,100,21.97584858071059,18.708795056100936,1,1,0,1
302,72,10,0,10.862897098530084,-1.4279788630083203,1.035,0,24,0,1,0,0,1,1,100,17.859353597275913,14.093606580160559,1,1,0,1
302,73,76,7,24.842169044539332,-15.61282581021078,1.035,0,89,0,1,0,0,1,1,100,86.45146865323186,21.847224044799802,1,1,0,1
302,74,76,7,29.84115143911913,-38.184853945393115,1.035,0,89,0,1,0,0,1,1,100,92.55656036231666,36.1060950737074,1,1,0,1
307,75,80,17.2,50.88579324167221,-19.571088583208628,1.025,0,118,0,1,0,0,1,1,100,73.2357989763841,11.309092286974199,1,1,0,1
307,76,80,17.2,58.049784768372774,-15.821246721781804,1.025,0,118,0,1,0,0,1,1,100,82.55379254929721,46.938143512146674,1,1,0,1
307,77,80,17.2,65.36152655817568,-0.6221451535820961,1.025,0,118,0,1,0,0,1,1,100,76.2787663191557,26.439858222484386,1,1,0,1
313,78,95.1,40.7,69.73504618927836,13.090210564434528,1.02,0,232,0,1,0,0,1,1,100,174.10942090204918,40.54025327057579,1,1,0,1
313,79,95.1,40.7,84.33971078693867,9.451128523796797,1.02,0,232,0,1,0,0,1,1,100,182.35878998879343,22.364408122617704,1,1,0,1
313,80,95.1,40.7,95.54967270419002,37.530577171593904,1.02,0,232,0,1,0,0,1,1,100,204.04059772389007,82.70078662666256,1,1,0,1
314,81,0,13.68,176.58836029469967,-84.10703514935449,0.98,0,100,0,1,0,0,1,1,100,0.0,0.0,1,1,0,1
315,82,12,0,4.644300496112555,-0.10141334133222735,1.014,0,14,0,1,0,0,1,1,100,11.975488101504745,1.8344340383307833,1,1,0,1
315,83,12,0,5.088843769021332,-2.2354403374716645,1.014,0,14,0,1,0,0,1,1,100,10.123355662822725,1.7681040430068986,1,1,0,1
315,84,12,0,4.827822242584079,-0.4087217495776718,1.014,0,14,0,1,0,0,1,1,100,13.12707804311067,3.520435675866903,1,1,0,1
315,85,12,0,5.888043198455126,0.022577088698746195,1.014,0,14,0,1,0,0,1,1,100,10.78392196018249,0.8084668210521357,1,1,0,1
315,86,12,0,7.043374897912145,-0.05134122809395247,1.014,0,14,0,1,0,0,1,1,100,12.002838578447701,4.431735394969585,1,1,0,1
315,87,155,0.048,56.52552755922079,-85.24795952625573,1.014,0,182,0,1,0,0,1,1,100,121.28002503397873,86.10757533876777,1,1,0,1
316,88,155,25.22,93.5764416269958,-53.04325570259243,1.017,0,182,0,1,0,0,1,1,100,145.17798097524792,42.736872325232255,1,1,0,1
318,89,400,137.4,221.95616236887875,-62.916944986209245,1.05,0,471,0,1,0,0,1,1,100,434.0558507293463,221.4796744659543,1,1,0,1
321,90,400,108.2,146.92910555750132,-103.93770172959194,1.05,0,471,0,1,0,0,1,1,100,311.91256880760193,84.09159664530307,1,1,0,1
322,91,50,-4.96,17.1122053489089,-10.140852606669068,1.05,0,53,0,1,0,0,1,1,100,59.801950734108686,22.714179398026324,1,1,0,1
322,92,50,-4.96,17.782810359448195,-12.264877752121539,1.05,0,53,0,1,0,0,1,1,100,37.612684725318104,16.459144158847185,1,1,0,1
322,93,50,-4.96,18.3947106949985,-13.57860798975453,1.05,0,53,0,1,0,0,1,1,100,49.964588994625956,13.417224842123687,1,1,0,1
322,94,50,-4.96,11.79906068816781,-16.535977847874165,1.05,0,53,0,1,0,0,1,1,100,45.98665056983009,0.17945325002074242,1,1,0,1
322,95,50,-4.96,16.17399206236005,-14.320136554725465,1.05,0,53,0,1,0,0,1,1,100,58.1514842621982,56.36354926953591,1,1,0,1
322,96,50,-4.96,11.36957219094038,-16.254493455775084,1.05,0,53,0,1,0,0,1,1,100,54.041584401857115,15.28676903340967,1,1,0,1
323,97,155,31.79,60.5451008528471,-69.61967152450234,1.05,0,182,0,1,0,0,1,1,100,186.7324377123732,98.46440282909897,1,1,0,1
323,98,155,31.79,103.24995259195568,9.412500088103144,1.05,0,182,0,1,0,0,1,1,100,139.9443342073355,58.713016365224036,1,1,0,1
323,99,350,71.78,151.4568949257955,-54.10764371510598,1.05,0,412,0,1,0,0,1,1,100,366.0924371541477,182.74412336247036,1,1,0,1
0 / END OF GENERATOR DATA, BEGIN BRANCH DATA
101,102,1,0.003,0.014,0.461,210.0,231.6,240.0,0,0,0,0,1,1,0,1,1
101,103,1,0.055,0.211,0.057,210.0,249.6,264.0,0,0,0,0,1,1,0,1,1
101,105,1,0.022,0.085,0.023,210.0,249.6,264.0,0,0,0,0,1,1,0,1,1
102,104,1,0.033,0.127,0.034,210.0,249.6,264.0,0,0,0,0,1,1,0,1,1
102,106,1,0.05,0.192,0.052,210.0,249.6,264.0,0,0,0,0,1,1,0,1,1
103,109,1,0.031,0.119,0.032,210.0,249.6,264.0,0,0,0,0,1,1,0,1,1
104,109,1,0.027,0.104,0.028,210.0,249.6,264.0,0,0,0,0,1,1,0,1,1
105,110,1,0.023,0.088,0.024,210.0,249.6,264.0,0,0,0,0,1,1,0,1,1
106,110,1,0.014,0.061,2.459,210.0,231.6,240.0,0,0,0,0,1,1,0,1,1
107,108,1,0.016,0.061,0.017,210.0,249.6,264.0,0,0,0,0,1,1,0,1,1
107,203,1,0.042,0.161,0.044,210.0,249.6,264.0,0,0,0,0,1,1,0,1,1
108,109,1,0.043,0.165,0.045,210.0,249.6,264.0,0,0,0,0,1,1,0,1,1
108,110,1,0.043,0.165,0.045,210.0,249.6,264.0,0,0,0,0,1,1,0,1,1
111,113,1,0.006,0.048,0.1,600.0,720.0,750.0,0,0,0,0,1,1,0,1,1
111,114,1,0.005,0.042,0.088,600.0,720.0,750.0,0,0,0,0,1,1,0,1,1
112,113,1,0.006,0.048,0.1,600.0,720.0,750.0,0,0,0,0,1,1,0,1,1
112,123,1,0.012,0.097,0.203,600.0,720.0,750.0,0,0,0,0,1,1,0,1,1
113,123,1,0.011,0.087,0.182,600.0,720.0,750.0,0,0,0,0,1,1,0,1,1
113,215,1,0.01,0.075,0.158,600.0,720.0,750.0,0,0,0,0,1,1,0,1,1
114,116,1,0.005,0.059,0.082,600.0,720.0,750.0,0,0,0,0,1,1,0,1,1
115,116,1,0.002,0.017,0.036,600.0,720.0,750.0,0,0,0,0,1,1,0,1,1
115,121,1,0.006,0.049,0.103,600.0,720.0,750.0,0,0,0,0,1,1,0,1,1
115,121,2,0.006,0.049,0.103,600.0,720.0,750.0,0,0,0,0,1,1,0,1,1
115,124,1,0.007,0.052,0.109,600.0,720.0,750.0,0,0,0,0,1,1,0,1,1
116,117,1,0.003,0.026,0.055,600.0,720.0,750.0,0,0,0,0,1,1,0,1,1
116,119,1,0.003,0.023,0.049,600.0,720.0,750.0,0,0,0,0,1,1,0,1,1
117,118,1,0.002,0.014,0.03,600.0,720.0,750.0,0,0,0,0,1,1,0,1,1
117,122,1,0.014,0.105,0.221,600.0,720.0,750.0,0,0,0,0,1,1,0,1,1
118,121,1,0.003,0.026,0.055,600.0,720.0,750.0,0,0,0,0,1,1,0,1,1
118,121,2,0.003,0.026,0.055,600.0,720.0,750.0,0,0,0,0,1,1,0,1,1
119,120,1,0.005,0.04,0.083,600.0,720.0,750.0,0,0,0,0,1,1,0,1,1
119,120,2,0.005,0.04,0.083,600.0,720.0,750.0,0,0,0,0,1,1,0,1,1
120,123,1,0.003,0.022,0.046,600.0,720.0,750.0,0,0,0,0,1,1,0,1,1
120,123,2,0.003,0.022,0.046,600.0,720.0,750.0,0,0,0,0,1,1,0,1,1
121,122,1,0.009,0.068,0.142,600.0,720.0,750.0,0,0,0,0,1,1,0,1,1
123,217,1,0.01,0.074,0.155,600.0,720.0,750.0,0,0,0,0,1,1,0,1,1
201,202,1,0.003,0.014,0.461,210.0,231.6,240.0,0,0,0,0,1,1,0,1,1
201,203,1,0.055,0.211,0.057,210.0,249.6,264.0,0,0,0,0,1,1,0,1,1
201,205,1,0.022,0.085,0.023,210.0,249.6,264.0,0,0,0,0,1,1,0,1,1
202,204,1,0.033,0.127,0.034,210.0,249.6,264.0,0,0,0,0,1,1,0,1,1
202,206,1,0.05,0.192,0.052,210.0,249.6,264.0,0,0,0,0,1,1,0,1,1
203,209,1,0.031,0.119,0.032,210.0,249.6,264.0,0,0,0,0,1,1,0,1,1
204,209,1,0.027,0.104,0.028,210.0,249.6,264.0,0,0,0,0,1,1,0,1,1
205,210,1,0.023,0.088,0.024,210.0,249.6,264.0,0,0,0,0,1,1,0,1,1
206,210,1,0.014,0.061,2.459,210.0,231.6,240.0,0,0,0,0,1,1,0,1,1
207,208,1,0.016,0.061,0.017,210.0,249.6,264.0,0,0,0,0,1,1,0,1,1
208,209,1,0.043,0.165,0.045,210.0,249.6,264.0,0,0,0,0,1,1,0,1,1
208,210,1,0.043,0.165,0.045,210.0,249.6,264.0,0,0,0,0,1,1,0,1,1
211,213,1,0.006,0.048,0.1,600.0,720.0,750.0,0,0,0,0,1,1,0,1,1
211,214,1,0.005,0.042,0.088,600.0,720.0,750.0,0,0,0,0,1,1,0,1,1
212,213,1,0.006,0.048,0.1,600.0,720.0,750.0,0,0,0,0,1,1,0,1,1
212,223,1,0.012,0.097,0.203,600.0,720.0,750.0,0,0,0,0,1,1,0,1,1
213,223,1,0.011,0.087,0.182,600.0,720.0,750.0,0,0,0,0,1,1,0,1,1
214,216,1,0.005,0.059,0.082,600.0,720.0,750.0,0,0,0,0,1,1,0,1,1
215,216,1,0.002,0.017,0.036,600.0,720.0,750.0,0,0,0,0,1,1,0,1,1
215,221,1,0.006,0.049,0.103,600.0,720.0,750.0,0,0,0,0,1,1,0,1,1
215,221,2,0.006,0.049,0.103,600.0,720.0,750.0,0,0,0,0,1,1,0,1,1
215,224,1,0.007,0.052,0.109,600.0,720.0,750.0,0,0,0,0,1,1,0,1,1
216,217,1,0.003,0.026,0.055,600.0,720.0,750.0,0,0,0,0,1,1,0,1,1
216,219,1,0.003,0.023,0.049,600.0,720.0,750.0,0,0,0,0,1,1,0,1,1
217,218,1,0.002,0.014,0.03,600.0,720.0,750.0,0,0,0,0,1,1,0,1,1
217,222,1,0.014,0.105,0.221,600.0,720.0,750.0,0,0,0,0,1,1,0,1,1
218,221,1,0.003,0.026,0.055,600.0,720.0,750.0,0,0,0,0,1,1,0,1,1
218,221,2,0.003,0.026,0.055,600.0,720.0,750.0,0,0,0,0,1,1,0,1,1
219,220,1,0.005,0.04,0.083,600.0,720.0,750.0,0,0,0,0,1,1,0,1,1
219,220,2,0.005,0.04,0.083,600.0,720.0,750.0,0,0,0,0,1,1,0,1,1
220,223,1,0.003,0.022,0.046,600.0,720.0,750.0,0,0,0,0,1,1,0,1,1
220,223,2,0.003,0.022,0.046,600.0,720.0,750.0,0,0,0,0,1,1,0,1,1
221,222,1,0.009,0.068,0.142,600.0,720.0,750.0,0,0,0,0,1,1,0,1,1
301,302,1,0.003,0.014,0.461,210.0,231.6,240.0,0,0,0,0,1,1,0,1,1
301,303,1,0.055,0.211,0.057,210.0,249.6,264.0,0,0,0,0,1,1,0,1,1
301,305,1,0.022,0.085,0.023,210.0,249.6,264.0,0,0,0,0,1,1,0,1,1
302,304,1,0.033,0.127,0.034,210.0,249.6,264.0,0,0,0,0,1,1,0,1,1
302,306,1,0.05,0.192,0.052,210.0,249.6,264.0,0,0,0,0,1,1,0,1,1
303,309,1,0.031,0.119,0.032,210.0,249.6,264.0,0,0,0,0,1,1,0,1,1
304,309,1,0.027,0.104,0.028,210.0,249.6,264.0,0,0,0,0,1,1,0,1,1
305,310,1,0.023,0.088,0.024,210.0,249.6,264.0,0,0,0,0,1,1,0,1,1
306,310,1,0.014,0.061,2.459,210.0,231.6,240.0,0,0,0,0,1,1,0,1,1
307,308,1,0.016,0.061,0.017,210.0,249.6,264.0,0,0,0,0,1,1,0,1,1
308,309,1,0.043,0.165,0.045,210.0,249.6,264.0,0,0,0,0,1,1,0,1,1
308,310,1,0.043,0.165,0.045,210.0,249.6,264.0,0,0,0,0,1,1,0,1,1
311,313,1,0.006,0.048,0.1,600.0,720.0,750.0,0,0,0,0,1,1,0,1,1
311,314,1,0.005,0.042,0.088,600.0,720.0,750.0,0,0,0,0,1,1,0,1,1
312,313,1,0.006,0.048,0.1,600.0,720.0,750.0,0,0,0,0,1,1,0,1,1
312,323,1,0.012,0.097,0.203,600.0,720.0,750.0,0,0,0,0,1,1,0,1,1
313,323,1,0.011,0.087,0.182,600.0,720.0,750.0,0,0,0,0,1,1,0,1,1
314,316,1,0.005,0.059,0.082,600.0,720.0,750.0,0,0,0,0,1,1,0,1,1
315,316,1,0.002,0.017,0.036,600.0,720.0,750.0,0,0,0,0,1,1,0,1,1
315,321,1,0.006,0.049,0.103,600.0,720.0,750.0,0,0,0,0,1,1,0,1,1
315,321,2,0.006,0.049,0.103,600.0,720.0,750.0,0,0,0,0,1,1,0,1,1
315,324,1,0.007,0.052,0.109,600.0,720.0,750.0,0,0,0,0,1,1,0,1,1
316,317,1,0.003,0.026,0.055,600.0,720.0,750.0,0,0,0,0,1,1,0,1,1
316,319,1,0.003,0.023,0.049,600.0,720.0,750.0,0,0,0,0,1,1,0,1,1
317,318,1,0.002,0.014,0.03,600.0,720.0,750.0,0,0,0,0,1,1,0,1,1
317,322,1,0.014,0.105,0.221,600.0,720.0,750.0,0,0,0,0,1,1,0,1,1
318,223,1,0.013,0.104,0.218,600.0,720.0,750.0,0,0,0,0,1,1,0,1,1
318,321,1,0.003,0.026,0.055,600.0,720.0,750.0,0,0,0,0,1,1,0,1,1
318,321,2,0.003,0.026,0.055,600.0,720.0,750.0,0,0,0,0,1,1,0,1,1
319,320,1,0.005,0.04,0.083,600.0,720.0,750.0,0,0,0,0,1,1,0,1,1
319,320,2,0.005,0.04,0.083,600.0,720.0,750.0,0,0,0,0,1,1,0,1,1
320,323,1,0.003,0.022,0.046,600.0,720.0,750.0,0,0,0,0,1,1,0,1,1
320,323,2,0.003,0.022,0.046,600.0,720.0,750.0,0,0,0,0,1,1,0,1,1
321,322,1,0.009,0.068,0.142,600.0,720.0,750.0,0,0,0,0,1,1,0,1,1
323,325,1,0,0.009,0,866.4,1071.6,1071.6,0,0,0,0,1,1,0,1,1
0 / END OF BRANCH DATA, BEGIN TRANSFORMER DATA
  103 ,  124 , 0,  1 , 1, 1, 1, 0, 0, 2, '            ',  1 , 1, 1
   0.002000 ,  0.084000 ,  100.000000
   1.015000 , 0,  0.000000 ,  400.000000 ,  510.000000 ,  600.000000 , 0, 0,  1.10 ,  0.90 ,  1.10 ,  0.90 , 33, 0, 0, 0
   1.000000, 0
  109 ,  111 , 0,  1 , 1, 1, 1, 0, 0, 2, '            ',  1 , 1, 1
   0.002000 ,  0.084000 ,  100.000000
   1.030000 , 0,  0.000000 ,  400.000000 ,  510.000000 ,  600.000000 , 0, 0,  1.10 ,  0.90 ,  1.10 ,  0.90 , 33, 0, 0, 0
   1.000000, 0
  109 ,  112 , 0,  1 , 1, 1, 1, 0, 0, 2, '            ',  1 , 1, 1
   0.002000 ,  0.084000 ,  100.000000
   1.030000 , 0,  0.000000 ,  400.000000 ,  510.000000 ,  600.000000 , 0, 0,  1.10 ,  0.90 ,  1.10 ,  0.90 , 33, 0, 0, 0
   1.000000, 0
  110 ,  111 , 0,  1 , 1, 1, 1, 0, 0, 2, '            ',  1 , 1, 1
   0.002000 ,  0.084000 ,  100.000000
   1.015000 , 0,  0.000000 ,  400.000000 ,  510.000000 ,  600.000000 , 0, 0,  1.10 ,  0.90 ,  1.10 ,  0.90 , 33, 0, 0, 0
   1.000000, 0
  110 ,  112 , 0,  1 , 1, 1, 1, 0, 0, 2, '            ',  1 , 1, 1
   0.002000 ,  0.084000 ,  100.000000
   1.015000 , 0,  0.000000 ,  400.000000 ,  510.000000 ,  600.000000 , 0, 0,  1.10 ,  0.90 ,  1.10 ,  0.90 , 33, 0, 0, 0
   1.000000, 0
  203 ,  224 , 0,  1 , 1, 1, 1, 0, 0, 2, '            ',  1 , 1, 1
   0.002000 ,  0.084000 ,  100.000000
   1.015000 , 0,  0.000000 ,  400.000000 ,  510.000000 ,  600.000000 , 0, 0,  1.10 ,  0.90 ,  1.10 ,  0.90 , 33, 0, 0, 0
   1.000000, 0
  209 ,  211 , 0,  1 , 1, 1, 1, 0, 0, 2, '            ',  1 , 1, 1
   0.002000 ,  0.084000 ,  100.000000
   1.030000 , 0,  0.000000 ,  400.000000 ,  510.000000 ,  600.000000 , 0, 0,  1.10 ,  0.90 ,  1.10 ,  0.90 , 33, 0, 0, 0
   1.000000, 0
  209 ,  212 , 0,  1 , 1, 1, 1, 0, 0, 2, '            ',  1 , 1, 1
   0.002000 ,  0.084000 ,  100.000000
   1.030000 , 0,  0.000000 ,  400.000000 ,  510.000000 ,  600.000000 , 0, 0,  1.10 ,  0.90 ,  1.10 ,  0.90 , 33, 0, 0, 0
   1.000000, 0
  210 ,  211 , 0,  1 , 1, 1, 1, 0, 0, 2, '            ',  1 , 1, 1
   0.002000 ,  0.084000 ,  100.000000
   1.015000 , 0,  0.000000 ,  400.000000 ,  510.000000 ,  600.000000 , 0, 0,  1.10 ,  0.90 ,  1.10 ,  0.90 , 33, 0, 0, 0
   1.000000, 0
  210 ,  212 , 0,  1 , 1, 1, 1, 0, 0, 2, '            ',  1 , 1, 1
   0.002000 ,  0.084000 ,  100.000000
   1.015000 , 0,  0.000000 ,  400.000000 ,  510.000000 ,  600.000000 , 0, 0,  1.10 ,  0.90 ,  1.10 ,  0.90 , 33, 0, 0, 0
   1.000000, 0
  303 ,  324 , 0,  1 , 1, 1, 1, 0, 0, 2, '            ',  1 , 1, 1
   0.002000 ,  0.084000 ,  100.000000
   1.015000 , 0,  0.000000 ,  400.000000 ,  510.000000 ,  600.000000 , 0, 0,  1.10 ,  0.90 ,  1.10 ,  0.90 , 33, 0, 0, 0
   1.000000, 0
  309 ,  311 , 0,  1 , 1, 1, 1, 0, 0, 2, '            ',  1 , 1, 1
   0.002000 ,  0.084000 ,  100.000000
   1.030000 , 0,  0.000000 ,  400.000000 ,  510.000000 ,  600.000000 , 0, 0,  1.10 ,  0.90 ,  1.10 ,  0.90 , 33, 0, 0, 0
   1.000000, 0
  309 ,  312 , 0,  1 , 1, 1, 1, 0, 0, 2, '            ',  1 , 1, 1
   0.002000 ,  0.084000 ,  100.000000
   1.030000 , 0,  0.000000 ,  400.000000 ,  510.000000 ,  600.000000 , 0, 0,  1.10 ,  0.90 ,  1.10 ,  0.90 , 33, 0, 0, 0
   1.000000, 0
  310 ,  311 , 0,  1 , 1, 1, 1, 0, 0, 2, '            ',  1 , 1, 1
   0.002000 ,  0.084000 ,  100.000000
   1.015000 , 0,  0.000000 ,  400.000000 ,  510.000000 ,  600.000000 , 0, 0,  1.10 ,  0.90 ,  1.10 ,  0.90 , 33, 0, 0, 0
   1.000000, 0
  310 ,  312 , 0,  1 , 1, 1, 1, 0, 0, 2, '            ',  1 , 1, 1
   0.002000 ,  0.084000 ,  100.000000
   1.015000 , 0,  0.000000 ,  400.000000 ,  510.000000 ,  600.000000 , 0, 0,  1.10 ,  0.90 ,  1.10 ,  0.90 , 33, 0, 0, 0
   1.000000, 0
0 / END OF TRANSFORMER DATA, BEGIN AREA DATA
0 / END OF AREA DATA, BEGIN TWO-TERMINAL DC DATA
0 / END OF TWO-TERMINAL DC DATA, BEGIN VSC DC LINE DATA
0 / END OF VSC DC LINE DATA, BEGIN SWITCHED SHUNT DATA
0 / END OF SWITCHED SHUNT DATA, BEGIN IMPEDANCE CORRECTION DATA
0 / END OF IMPEDANCE CORRECTION DATA, BEGIN MULTI-TERMINAL DC DATA
0 / END OF MULTI-TERMINAL DC DATA, BEGIN MULTI-SECTION LINE DATA
0 / END OF MULTI-SECTION LINE DATA, BEGIN ZONE DATA
0 / END OF ZONE DATA, BEGIN INTER-AREA TRANSFER DATA
0 / END OF INTER-AREA TRANSFER DATA, BEGIN OWNER DATA
0 / END OF OWNER DATA, BEGIN FACTS CONTROL DEVICE DATA
0 / END OF FACTS CONTROL DEVICE DATA
0 / END OF SWITCHED SHUNT DATA, BEGIN GNE DATA
0 / END OF GNE DATA, BEGIN INDUCTION MACHINE DATA
0 / END OF INDUCTION MACHINE DATA
Q 
